Version 4
SHEET 1 4024 1592
WIRE 912 -368 912 -400
WIRE 1104 -368 1104 -400
WIRE 912 -256 912 -288
WIRE 1104 -256 1104 -288
WIRE 1920 -112 1840 -112
WIRE 2048 -112 2000 -112
WIRE 2464 -112 2048 -112
WIRE 1840 -64 1840 -112
WIRE 176 0 -80 0
WIRE 496 0 240 0
WIRE -80 96 -80 0
WIRE 176 96 -80 96
WIRE 416 96 256 96
WIRE 496 96 496 0
WIRE 496 96 416 96
WIRE 656 96 496 96
WIRE 1872 96 656 96
WIRE 2464 112 2464 -112
WIRE 416 144 416 96
WIRE 496 144 496 96
WIRE 656 160 656 96
WIRE 2048 304 2048 -112
WIRE 2048 304 2016 304
WIRE -80 320 -80 96
WIRE 1872 320 1872 96
WIRE 1936 320 1872 320
WIRE 416 336 416 224
WIRE 416 336 400 336
WIRE 496 336 496 224
WIRE 496 336 416 336
WIRE 656 336 656 224
WIRE 656 336 496 336
WIRE 2240 336 2240 80
WIRE 2240 336 2016 336
WIRE 1936 352 1872 352
WIRE 2240 368 2016 368
WIRE 1936 384 1904 384
WIRE 400 400 400 336
WIRE 2464 400 2464 192
WIRE 2464 400 2016 400
WIRE 2528 400 2464 400
WIRE 2992 400 2528 400
WIRE 3728 400 3728 240
WIRE 3728 400 3552 400
WIRE 2992 416 2992 400
WIRE 3376 416 2992 416
WIRE 3728 432 3728 400
WIRE 3728 432 3552 432
WIRE 416 448 416 336
WIRE 496 448 496 336
WIRE 2528 448 2528 400
WIRE 2576 448 2528 448
WIRE 3376 448 3008 448
WIRE 656 464 656 336
WIRE 1904 464 1904 384
WIRE 3728 464 3552 464
WIRE 2528 480 2528 448
WIRE 2576 480 2576 448
WIRE 3376 480 3248 480
WIRE 3616 496 3552 496
WIRE 2864 560 2784 560
WIRE 3008 560 3008 448
WIRE 3008 560 2944 560
WIRE 3088 560 3008 560
WIRE 3248 560 3248 480
WIRE 3248 560 3168 560
WIRE 3408 560 3248 560
WIRE -80 576 -80 400
WIRE 160 576 -80 576
WIRE 416 576 416 528
WIRE 416 576 240 576
WIRE 496 576 496 528
WIRE 496 576 416 576
WIRE 656 576 656 528
WIRE 656 576 496 576
WIRE 1872 576 1872 352
WIRE 1872 576 656 576
WIRE 2240 576 2240 368
WIRE 2528 592 2528 544
WIRE 2576 592 2576 560
WIRE 2576 592 2528 592
WIRE 2784 592 2784 560
WIRE 3616 592 3616 496
WIRE 2528 608 2528 592
WIRE 3008 608 3008 560
WIRE 3728 640 3728 464
WIRE -80 672 -80 576
WIRE 160 672 -80 672
WIRE 496 672 496 576
WIRE 496 672 224 672
WIRE 3408 688 3408 560
WIRE 2784 704 2784 672
WIRE 3008 720 3008 688
FLAG 400 400 0
FLAG 912 -256 0
FLAG 1104 -256 0
FLAG 912 -400 VCC
FLAG 1104 -400 VEE
FLAG 2240 80 VCC
FLAG 2240 576 VEE
FLAG 1904 464 0
FLAG 2528 608 0
FLAG 3008 720 0
FLAG 3728 240 VCC
FLAG 3728 640 VEE
FLAG 3616 592 0
FLAG 3248 560 OUTPUT
FLAG 2784 704 0
FLAG 1840 -64 0
DATAFLAG 3408 688 ""
SYMBOL res 480 128 R0
SYMATTR InstName R9
SYMATTR Value 5.1k
SYMBOL res 480 432 R0
SYMATTR InstName R10
SYMATTR Value 5.1k
SYMBOL cap 640 160 R0
SYMATTR InstName C9
SYMATTR Value 2000p
SYMBOL cap 640 464 R0
SYMATTR InstName C12
SYMATTR Value 2000p
SYMBOL voltage 912 -384 R0
WINDOW 123 0 0 Left 0
WINDOW 39 0 0 Left 0
SYMATTR InstName V2
SYMATTR Value 15V
SYMBOL voltage 1104 -272 R180
WINDOW 0 24 96 Left 2
WINDOW 3 24 16 Left 2
WINDOW 123 0 0 Left 0
WINDOW 39 0 0 Left 0
SYMATTR InstName V3
SYMATTR Value 15V
SYMBOL res 272 80 R90
WINDOW 0 0 56 VBottom 2
WINDOW 3 32 56 VTop 2
SYMATTR InstName R1
SYMATTR Value 5Meg
SYMBOL res 256 560 R90
WINDOW 0 0 56 VBottom 2
WINDOW 3 32 56 VTop 2
SYMATTR InstName R2
SYMATTR Value 5Meg
SYMBOL cap 240 -16 R90
WINDOW 0 0 32 VBottom 2
WINDOW 3 32 32 VTop 2
SYMATTR InstName C1
SYMATTR Value 2p
SYMBOL cap 224 656 R90
WINDOW 0 0 32 VBottom 2
WINDOW 3 32 32 VTop 2
SYMATTR InstName C2
SYMATTR Value 2p
SYMBOL res 2448 96 R0
SYMATTR InstName R4
SYMATTR Value 100R
SYMBOL res 2560 464 R0
SYMATTR InstName R6
SYMATTR Value 1Meg
SYMBOL AutoGenerated\\AD8130 1968 352 R0
SYMATTR InstName U1
SYMBOL AutoGenerated\\THS3491RGT 3456 448 R0
SYMATTR InstName U2
SYMBOL res 3024 704 R180
WINDOW 0 36 76 Left 2
WINDOW 3 36 40 Left 2
SYMATTR InstName R8
SYMATTR Value 143
SYMBOL res 3184 544 R90
WINDOW 0 0 56 VBottom 2
WINDOW 3 32 56 VTop 2
SYMATTR InstName R11
SYMATTR Value 576
SYMBOL res 2960 544 R90
WINDOW 0 0 56 VBottom 2
WINDOW 3 32 56 VTop 2
SYMATTR InstName R13
SYMATTR Value 10k
SYMBOL voltage 2784 576 R0
WINDOW 123 0 0 Left 0
WINDOW 39 0 0 Left 0
SYMATTR InstName V4
SYMATTR Value -0.55V
SYMBOL res 2016 -128 R90
WINDOW 0 0 56 VBottom 2
WINDOW 3 32 56 VTop 2
SYMATTR InstName R5
SYMATTR Value 100R
SYMBOL res 400 128 R0
SYMATTR InstName R3
SYMATTR Value 220k
SYMBOL res 400 432 R0
SYMATTR InstName R7
SYMATTR Value 220k
SYMBOL voltage -80 304 R0
WINDOW 3 24 152 Left 2
WINDOW 123 24 124 Left 2
WINDOW 39 0 0 Left 0
SYMATTR InstName V1
SYMATTR Value 0
SYMATTR Value2 AC 10
TEXT -688 888 Left 2 !.tran 1u
