Version 4
SHEET 1 880 680
WIRE 336 16 176 16
WIRE 336 48 336 16
WIRE 176 80 176 16
WIRE 336 160 336 128
WIRE -208 176 -304 176
WIRE 48 176 -96 176
WIRE 176 176 176 160
WIRE 176 176 128 176
WIRE 176 192 176 176
WIRE -96 208 -96 176
WIRE -304 240 -304 176
WIRE -208 288 -208 176
WIRE -144 288 -208 288
WIRE 176 288 176 256
WIRE -96 320 -96 304
WIRE -304 400 -304 320
FLAG 176 288 0
FLAG 336 160 0
FLAG -304 400 0
FLAG -96 320 0
SYMBOL cap 160 192 R0
SYMATTR InstName C1
SYMATTR Value 330n
SYMBOL res 160 64 R0
SYMATTR InstName R1
SYMATTR Value 3.3Meg
SYMBOL res 144 160 R90
WINDOW 0 0 56 VBottom 2
WINDOW 3 32 56 VTop 2
SYMATTR InstName R2
SYMATTR Value 10R
SYMBOL voltage 336 32 R0
WINDOW 123 0 0 Left 0
WINDOW 39 0 0 Left 0
SYMATTR InstName V1
SYMATTR Value 5V
SYMBOL nmos -144 208 R0
SYMATTR InstName M1
SYMATTR Value Si7336ADP
SYMBOL voltage -304 224 R0
WINDOW 123 0 0 Left 0
WINDOW 39 0 0 Left 0
SYMATTR InstName V2
SYMATTR Value PULSE(0 5 1s 1n 1n 100ns)
TEXT -338 424 Left 2 !.tran 10s
